     384
 i =   100000, time =   100000.000, E =     -2210.6277080064
  O        58.3186458094       66.9226121047      -39.8667996857
  H        57.3726949496       66.8079673572      -39.9026180104
  H        58.2911980285       66.7390591033      -38.9025632651
  O        70.2011385783       99.9526713578       67.8821230438
  H        69.7703774350      100.6428944631       68.4523923366
  H        70.5208205279       99.3786376536       68.6146018660
  O        57.5284452457      109.2323161955       15.6614974684
  H        58.4045257470      109.0810134506       16.0923329766
  H        57.3326458134      110.1409344016       15.9863686279
  O       172.5002873344      100.0395916555       55.4270607322
  H       172.9349765054      100.4171815744       56.2590399964
  H       171.9402336752       99.3190706139       55.8115835622
  O        95.5902645004       85.3126285787      -14.5961593603
  H        95.3149158761       84.8010340724      -13.8168488816
  H        95.3986429400       84.6949211502      -15.3687506516
  O        83.1842077142      137.4147286296      -14.9303360223
  H        82.2676856941      137.1084066672      -14.7398874010
  H        83.7321327053      136.6533355999      -14.6847252237
  O         9.4440247984      169.3183343711       11.0250366132
  H         9.9604395420      168.5527957741       11.3745409984
  H         9.8078034975      170.0724409903       11.5571087594
  O        39.4240972188      154.7241036071        0.0501666883
  H        40.1497863564      155.4260566171        0.1861212209
  H        38.7558014041      154.7819207403        0.7722544784
  O       101.1639214484      160.7385102522        3.1921371504
  H       100.3900644080      160.1825371019        3.5001837679
  H       101.1330296367      161.5405502828        3.7488426506
  O        90.5040458441      223.4106090104       50.2839845212
  H        89.7621864257      223.9629939759       50.6148832521
  H        90.2907883937      222.4847645459       50.4934576095
  O        74.8856324266      164.9369307044      -12.6166523564
  H        74.0398197353      164.4380611460      -12.4393993025
  H        75.5679269514      164.3427544612      -12.2521585621
  O        44.2918086407       90.2159038897       -9.8495311823
  H        44.5645227738       91.0392789944       -9.3832249772
  H        43.3948907353       89.9074376377       -9.5355745380
  O         8.7500078239      196.5582279878       17.6401012491
  H         7.8137333285      196.4871036816       17.4924761578
  H         8.8620397031      197.1389181317       18.4688123920
  O        98.2566018034      223.8797917405        6.5491908758
  H        97.2548931727      223.8743463143        6.6729023295
  H        98.5511191511      224.1116550620        7.4288899829
  O        53.4420230345      124.7955538596       -1.3905068366
  H        53.5223542070      125.3134848552       -0.5389957899
  H        53.9107132993      124.0060996835       -1.0690924867
  O        90.3685889777      174.0103011325      -17.9397625776
  H        90.3289506805      174.2675054068      -17.0071899198
  H        90.2457822454      173.0708652622      -18.1117592280
  O        45.1383239534      108.4702943322       28.7115547441
  H        44.4730127014      107.7685692268       28.6150535303
  H        45.9180930477      107.9849224356       29.0421651163
  O        50.6024178808      170.1924419052       19.3099799973
  H        51.2057313010      170.8713133559       19.7157958313
  H        50.0913722002      170.0278007422       20.1474142163
  O       100.5331334550      120.2812436532       28.8597790832
  H       100.9523471679      120.5867799767       29.6785902737
  H       100.6513528799      121.0190710556       28.2756254145
  O        69.3711026718      106.6840919575      105.2573223847
  H        69.1910342552      107.5159146359      105.7061677067
  H        70.4404729870      106.7406548088      105.3037754365
  O        32.0548413210      123.6586471508       16.2331455605
  H        32.7703238625      124.1803977885       16.7258680520
  H        31.9608985411      123.9788463645       15.2501828367
  O        35.6351955162      113.8924988107      -46.3801894996
  H        35.2574540776      114.5156277532      -45.7041146465
  H        35.0693312358      113.1321320433      -46.1816224523
  O        72.8231231440      150.8493702298       58.3368486334
  H        72.9007611384      150.4739129737       59.2044296236
  H        73.5100229611      150.4104395501       57.8083775909
  O        10.5568253456      140.3640694135       12.5886122340
  H        10.5204617501      139.9237866022       13.4520681979
  H         9.9110766373      141.1109869693       12.6363747805
  O        47.3378250025      119.6322218143        9.3880390466
  H        47.1016933168      119.5569912096       10.2858495723
  H        48.3009049538      119.4740921808        9.4204902862
  O        14.5426095575      109.2488694747       -5.0445067579
  H        15.1259280019      109.9463594494       -5.2980088343
  H        14.6500616508      109.0504413790       -4.0874046969
  O       142.0633184021      133.2543504191      -64.7282181288
  H       141.8618994440      134.0645468062      -64.2475321652
  H       141.2628703598      133.0922871497      -65.3057062022
  O        37.3595803153      126.2609012402      -30.4218955647
  H        37.8558051326      127.1167663261      -30.4787984100
  H        37.6930689902      125.8579202930      -29.5948848877
  O        74.6678108019      137.7478829310       28.0124066965
  H        75.0416345683      136.9158178361       28.3990508009
  H        75.1287543263      137.7947374091       27.2025949944
  O        86.2132036783      135.5016132280        7.1424812780
  H        86.3610138737      135.2455349358        8.1220694473
  H        85.9437145480      136.4252840033        7.2197336363
  O        44.5015253468      157.4435596587       53.0408233598
  H        43.9582602777      157.2306586441       53.8066048853
  H        45.0665463352      158.2164184031       53.2262195452
  O        16.0127428461      130.1822577777       -0.6427727423
  H        16.4181527530      129.3082584576       -0.4744877294
  H        16.1166211988      130.4059438037       -1.5647885169
  O       108.1627817118      113.0413523931       21.8566611637
  H       107.3734876068      113.5516179836       22.0864153704
  H       108.9551604058      113.6441287275       21.9785770252
  O        64.7329914454      119.4643593305      -13.2931148539
  H        64.6752410293      118.6076121433      -13.6559155517
  H        64.3463844397      119.3473041753      -12.3637658816
  O        88.7435967947      134.5339187621       -1.7713272178
  H        88.2943939480      135.3181648492       -1.2863937985
  H        88.4164834198      133.7161111829       -1.2774168027
  O        47.5762635733      182.7419469966       30.2020357327
  H        48.3155827956      183.1550904843       30.7419046687
  H        46.9351150279      182.6098899212       30.9771310646
  O       122.6446063802      172.2025577652       48.7157753444
  H       123.2738473032      172.9124884953       48.4970183775
  H       123.2481737201      171.5096573781       49.0540300767
  O       126.2006197973      177.2977120726      -81.7682207039
  H       125.7680488387      177.0692606877      -82.5840133806
  H       127.0168992816      176.7308024484      -81.8416822944
  O        28.3576931652      144.5266943399       15.8092279507
  H        28.4418475463      145.2448375617       15.1909797399
  H        28.1504631992      145.0075145938       16.6698772823
  O        93.7309335310      105.2668808102       59.0955740984
  H        93.9921415521      105.0484065954       60.0325920246
  H        94.4894640075      105.7839342697       58.7133295017
  O       112.2807970195      156.4367819158       33.0687798250
  H       112.0304088193      157.2468348909       33.5627594503
  H       112.6372133087      155.7781193108       33.7887806535
  O        66.0033533637      155.1034495944        7.6535382727
  H        66.8367773193      155.3255142418        7.1992527897
  H        66.2915813445      154.7609008615        8.4851526876
  O        38.4569574563       94.7162105148       41.6649071280
  H        37.5405309591       94.4215239454       41.8067280226
  H        38.8630843820       94.7409063218       42.6013650185
  O        84.9718375697      112.8639513747        9.5231294635
  H        85.4209354727      113.4537976362       10.1789267867
  H        85.2401738883      111.9473457431        9.8699231922
  O        86.7629930296      120.7570143982       31.2796267343
  H        86.9795048213      121.7280105569       31.2721089899
  H        87.2492363122      120.4240655313       32.0317380795
  O        79.5468390001      126.3348863636       51.0942861950
  H        78.9964712623      125.5470864673       51.4094772759
  H        79.9635152252      126.4676958747       51.9587643406
  O        17.0375755772       83.1629359512       53.3413848188
  H        16.8498851563       83.7248331818       52.5581808931
  H        16.8603242211       83.7525684074       54.1222289068
  O       110.1989589369      173.6278951177        8.9803413272
  H       111.0656403533      173.7586880722        9.4685318156
  H       110.4262567197      173.8373953784        8.0662939902
  O        58.9345007690      172.6119271447       57.3023854468
  H        58.5381483396      172.2472993994       58.1113249271
  H        59.9347292870      172.3608204499       57.4371940866
  O        75.7320937061       88.2489951176       13.9865183643
  H        75.9209725607       87.9498340282       14.8689552578
  H        74.8107067733       87.8748474139       14.0548269378
  O        86.2767424335      109.8261748237        7.3180550287
  H        86.4699675326      108.8575525989        7.2425375853
  H        85.8798113787      109.8905022996        8.2401825345
  O       122.8982455131      132.3127543098       79.0561366482
  H       123.8121432374      132.6580317592       79.2315303417
  H       122.2738359118      132.8057728991       79.6708677936
  O        73.7147132838      179.5887509201      -24.7014645900
  H        73.1624961791      179.2562460993      -23.9271658308
  H        74.5987333254      179.2898486636      -24.4944537395
  O        43.4564071984      131.6226776129       10.2895074189
  H        42.9431599624      131.4744216111       11.1489673568
  H        44.4562623064      131.5058560132       10.4214528533
  O       130.2056816825      124.7209357030       -3.9864822306
  H       130.4668040938      124.5883302477       -3.0545608665
  H       129.5963345240      123.9371954411       -4.1307320034
  O        70.1696033266       97.5862959703       -2.3648593343
  H        69.2781996182       97.6056345996       -1.9844362330
  H        70.8078623793       97.8211791856       -1.6168458238
  O       129.2323585941      164.8111541079       47.2300822978
  H       129.8439733632      164.6180236480       47.9092957804
  H       128.4094584372      164.3804174012       47.5768369028
  O       104.2951795450       75.4329423515       55.2153322295
  H       104.3730315560       75.2213834987       56.2041834725
  H       104.7261344013       76.2718704931       55.0149358019
  O        80.8469539246      161.1275668588      -28.3930358789
  H        80.8957535350      161.8351396628      -27.7471406391
  H        79.8367330585      161.0135836765      -28.4128359805
  O        45.1718049030      100.2477592109       19.8638748080
  H        44.5971493668       99.4464243525       19.6810528170
  H        45.1269943121      100.4511388339       20.8417887396
  O       129.9288137199      151.9010718537       19.8534240631
  H       129.3250394457      152.4603338607       19.3320953156
  H       130.5794330598      152.5333521792       20.2245107500
  O        17.8875043359      147.9299827284       41.6841572410
  H        17.8488536899      147.5675948132       42.6084862010
  H        18.5734533707      147.2436263737       41.2923696771
  O       100.8214610285       70.3303257303       30.2903163521
  H        99.9839055355       70.1254440732       30.7393770724
  H       100.6880161024       71.2498519595       29.9398113657
  O        72.3687173736      161.2790764616       14.5456542735
  H        72.5335678732      160.6831225964       15.2516914628
  H        72.1230745348      162.0694825219       14.9993831975
  O        20.3652311344      128.1603051025       20.0714198151
  H        19.4950998245      128.4310475513       19.7070280355
  H        20.3228592506      128.4762508625       21.0375687279
  O       104.8850382617      128.1979359609       10.1458079620
  H       103.9173480438      127.9874484812        9.8828524380
  H       105.3260942948      127.2989809399       10.3225775761
  O       100.1950281843      148.9652824097       53.2264359146
  H       100.5817050145      149.8563878911       53.4890725440
  H        99.2636154382      148.9200910897       53.5461450936
  O       164.7998334687      188.9780109156      122.4526629460
  H       164.2097554522      188.6402358123      123.1582496258
  H       164.7767388244      189.9799411866      122.5720491044
  O       157.7823918437      122.5491539720       56.5699038725
  H       157.1741843953      123.0696001686       56.0415126569
  H       157.4631840909      121.5986403630       56.5128229509
  O        38.3742777165      144.4648958904       47.5214374481
  H        38.8633239745      144.7750095896       48.3822404947
  H        37.4988372333      144.8645147873       47.5698765512
  O        46.1085442305      144.9508935046       25.4499941549
  H        46.6236587555      144.1478317949       25.1414840261
  H        45.5758645022      144.6778790194       26.2172681382
  O        68.9599244975      107.9241327376      -13.6576338628
  H        68.2962382140      107.2701286676      -14.0446196793
  H        69.2084194182      107.5325418158      -12.8105920537
  O        88.7883786333      121.6630530212       17.3191808052
  H        88.5842274010      122.5363202538       17.6798238626
  H        89.7000057454      121.4521155450       17.5329289957
  O       136.0400061407      125.2954601861       39.0975105291
  H       136.3126583045      125.4297125824       40.0280646971
  H       135.0821102916      125.4938191578       39.2207559597
  O        69.4663685460      137.8347778873       67.2019436830
  H        70.1242030556      137.0488823742       67.0586580129
  H        69.7782038610      138.1323778306       68.1386119951
  O        64.5679060149       90.8038152441       -9.8552874995
  H        65.0548146838       91.1484983221       -9.0772245756
  H        63.6712442312       91.2520450991       -9.7256367918
  O        61.3259618503      216.9751555119        8.2124120495
  H        60.8670799067      216.2299610050        8.6708696800
  H        61.2116510536      217.6943100841        8.8780322494
  O        83.1735441223      120.0452499194       39.2153960481
  H        82.7090407488      119.5038232502       39.8298566768
  H        82.7480918143      119.6804767665       38.4218395151
  O        99.7462232673      216.5807088527      -38.5006673177
  H        99.5552461590      215.6239075164      -38.6412143998
  H        99.8715130713      216.5892712619      -37.5559339339
  O       113.8126322361      115.9212354826      -11.4749976118
  H       114.2714741550      115.3464442041      -10.8226058750
  H       113.4958943537      116.7382250703      -10.9758104637
  O       140.0156223526      166.3391897803      -14.4933395454
  H       140.8753245895      166.4448961247      -14.0952537500
  H       139.3679693011      166.7108293353      -13.8732738859
  O        90.8525403850      115.4976263453       76.6738258527
  H        91.1028668181      115.9069445492       77.5354297441
  H        89.9269638826      115.4480079847       76.8263928946
  O        67.7564564431      161.7193299227       -2.0810104294
  H        67.2394478390      162.5377241592       -2.3333935562
  H        67.3762763567      161.4973275786       -1.1706059184
  O        66.0873621555      165.4783063736      -25.7789824173
  H        65.1244770918      165.5201421849      -26.0196131014
  H        66.4883007045      166.1835399361      -26.3352525935
  O        82.6641217569       83.6941927376       40.8232366043
  H        83.2763324268       84.3675316550       41.2726663743
  H        83.0216867514       82.8223399453       41.1691318655
  O       151.2333300942      147.5356593704       50.9225405181
  H       150.2965435638      147.7987417761       50.7981023174
  H       151.4107609003      147.7222228644       51.8642634043
  O        55.4652954159       82.4757568546        7.5549797129
  H        55.5690441553       83.2790720296        8.1772916728
  H        54.8302616349       81.9518335213        8.1035308662
  O        72.0511147043      131.8596874503       56.0355936832
  H        71.6951117224      132.7203498819       56.3584445035
  H        72.8509764209      131.8216920600       56.5060254664
  O        82.0291928667      179.7522146994       13.2683367240
  H        82.4661442647      180.0131782102       14.1132504054
  H        81.0482842877      179.9338727136       13.3655643002
  O        97.0936002752       97.1189864641       12.8689123885
  H        97.3031383021       96.5118363986       13.6344057946
  H        97.8929278917       97.7232345672       12.9956825097
  O        92.5170981840      101.6485917324       74.8142503391
  H        92.2344500337      100.9602465373       75.3960653332
  H        91.9996983008      102.4543261132       75.0299687619
  O        50.7395763058      127.2784149718       40.2172249950
  H        51.6906328508      127.4422798673       40.3164066106
  H        50.4836977629      127.0555265046       41.1383107736
  O        70.7789909532      118.9365983664       -6.0022055544
  H        71.2233576631      119.3332802413       -5.2434921872
  H        69.8795793721      118.6361135980       -5.5958690712
  O        29.3763831122      128.7348475718       43.7076698048
  H        28.8952515175      129.5123350420       44.1504560045
  H        28.7208415351      128.0704893161       43.9165004036
  O        70.5867425231      169.7338411357       22.7584475710
  H        69.7386237360      169.8443156743       23.3187641137
  H        71.3181004378      169.6569327962       23.3678535679
  O        95.9067734984      110.6853333015       38.1072177344
  H        96.0247848765      109.7203305961       38.2361178594
  H        96.6284084108      110.9730855002       38.7200684799
  O        56.0252280681      167.2090519870        3.9705054711
  H        56.6621841598      166.9669544578        4.6841005048
  H        56.5544912492      167.8246089787        3.3808305234
  O       103.7798982866       61.3098750448       50.0698675368
  H       102.8753849926       61.6360866265       50.2892853438
  H       104.3410701076       61.9451531726       50.5269837776
  O       105.9003819647      142.3793468832      -11.8636484259
  H       106.2505685225      141.7750333510      -12.5454745088
  H       106.3621747093      142.1569969490      -11.0187834058
  O        59.8281297665      198.8767746065      -12.6084369448
  H        59.4969210347      198.0305542304      -12.3052754874
  H        60.0235649428      199.3752196089      -11.7907100722
  O        91.7455347741      152.4008962576       10.1566541459
  H        91.2233393798      151.5656718585       10.0269723121
  H        92.4324922484      152.2166567608       10.8309178468
  O        47.9396988287      139.9404142298       76.4246908633
  H        48.4763595102      139.4718073196       75.7193564020
  H        47.9907088831      140.9184507897       76.2891229019
  O        80.4313017156      137.1005336098      -15.1085596135
  H        80.2990703618      136.6242348443      -14.2469164253
  H        79.8580947744      137.8941986382      -15.1568190280
  O        79.1751452623      194.5742825251        4.0079900687
  H        78.1563783685      194.4512588416        4.0407178824
  H        79.4568655551      195.4646577193        4.2116632748
  O        77.5999015407      189.9669799203       63.3792856266
  H        77.7121743778      190.4985049303       64.1809315030
  H        76.8452053631      190.4287874901       62.9339873113
  O        62.3453085978      128.4865755014       34.5714245309
  H        61.5727556155      128.5404886752       35.1651243203
  H        62.7426490170      127.7857501034       35.1098233004
  O        45.1127618145      132.4504223247        6.8435016491
  H        45.7888944374      132.0515045676        7.3502803667
  H        45.4523387744      133.3412140457        6.6193405563
  O        97.5486794416      182.9202172084       75.1835604420
  H        98.5517625465      182.8218666467       75.4135570515
  H        97.0294365628      182.5235831369       75.8800418013
  O        73.4263372441      213.5301127311        6.5352086359
  H        73.4992685665      212.5290498442        6.4228515754
  H        72.4853223596      213.7278842224        6.8901536507
  O        88.4689034313      143.4236871818       32.0376454353
  H        89.3488763112      143.8189522801       31.8700924180
  H        88.2579601958      143.4022438876       33.0028745633
  O       126.3161957017      166.5892885912       20.5791735181
  H       126.8735544669      167.3111053028       20.8432521596
  H       125.6642390548      166.3142452742       21.2657844191
  O        14.6517868266      107.5183607976      -44.4602366107
  H        14.2720936395      106.6810904338      -44.8373470895
  H        15.3771703214      107.7109986353      -45.1432680809
  O       103.5670470292      210.7700579884       31.2858338331
  H       103.5749504241      211.1253648264       32.2361469790
  H       102.6434533229      210.9616616019       31.0387501637
  O        90.2367399695       71.9028168090       40.5754105887
  H        90.4980074937       70.9430930494       40.5852961263
  H        89.9154234071       72.1538485582       39.6283652639
  O        46.6838517559      108.3380702753       20.9090069569
  H        46.3044447990      107.8668811819       20.1880534791
  H        45.9951121542      108.9235245007       21.2227699996
  O        57.2845018789      145.9250230404       11.8039231461
  H        57.7187776443      145.3069701993       11.1434194077
  H        57.4223827740      145.4929944868       12.6734964061
  O        68.4284166809      132.9846159469      -20.9784422154
  H        69.0289974326      132.4435932352      -20.4200170753
  H        67.8980849110      133.5405648180      -20.3798962328
  O       125.7638118481       80.3069052737       -2.1253668925
  H       125.1878823226       80.8783486531       -2.6527422257
  H       125.3347457550       80.0525147825       -1.3254904879
  O        65.3073194136      169.7525283783      -34.9595783213
  H        65.5524695500      168.9479380697      -34.5596086384
  H        64.8661133745      169.5965513093      -35.8463229469
  O        24.7783293125      143.2814465206      -12.3641739442
  H        24.1990360822      144.0911002543      -12.2644090684
  H        25.4395900827      143.3731290803      -11.6377240235
  O        52.7764895050      164.7987574889       80.7704209568
  H        52.2219006844      165.4907265461       81.1146682259
  H        52.5996193334      163.9978233499       81.3577874696
  O         3.0818101721      103.4611092198       56.7478250098
  H         2.9211073132      102.5172216177       57.0205802552
  H         3.3554157657      103.8713023685       57.6363043111
  O        33.8042881908      126.3942931547       26.7555852888
  H        34.3671662154      125.5953440130       26.9522384292
  H        33.9762388474      127.0380009083       27.5255893497
  O       139.8537692634      213.4465022804       69.4985793183
  H       139.2220240784      214.2231696514       69.3755225159
  H       140.0325574849      213.4552175822       70.4580865602
  O       113.2815994897       64.2744319605       62.0315736341
  H       112.6524283247       63.6083276425       62.3197780006
  H       114.1292156794       63.9867994917       62.4475699076
  O        54.7947975312      172.7052773034       35.6785353419
  H        55.3657086710      173.4146955553       35.2871822398
  H        55.1738100813      172.5248963547       36.5436450432
  O       101.3441711477      177.8092154849       42.7167182100
  H       102.2956868577      177.7522919773       42.4496885703
  H       101.3497283048      177.2374286905       43.5470552952
  O        52.0739980659      109.5907149364       20.5503214806
  H        53.0516966212      109.7172362368       20.4016314883
  H        51.6320401763      110.4328042774       20.4559926290
